11
	Energy:     -42.6423565
C          2.15478       -1.97062        0.00898
O          1.73196       -1.24564        1.11155
C          2.02187       -3.45409        0.10153
Cl         0.36865       -3.95860       -0.35777
Cl         3.23043       -4.33755       -0.87067
C          2.40983       -1.22768       -1.26575
Cl         1.75796       -2.00906       -2.73633
Cl         4.17509       -0.99688       -1.47474
Cl         3.01429       -0.51974        1.91638
Cl         2.27557       -4.01795        1.80270
Cl         1.65348        0.41457       -1.23709