  90
       -141.66398629
 Rh        -2.0789865450        0.0002013044       -0.0031346491
 P         -0.4851698463        1.7360406554        0.3119356821
 C          0.0909325791        2.2517951833       -1.3133711404
 C         -0.5912989588        1.8889925488       -2.4525745795
 C         -0.1180600607        2.2793913820       -3.6909919341
 C          1.0317530068        3.0370692737       -3.7809392998
 C          1.7064155920        3.4094810296       -2.6364119109
 C          1.2315064970        3.0165619727       -1.3986370156
 C         -1.2354907458        3.1523528411        1.1394002981
 C         -1.2693023393        4.3670637958        0.4924489970
 C         -1.8617286338        5.4584855449        1.0993547005
 C         -2.4196731802        5.3270949224        2.3542707240
 C         -2.3878481140        4.1084702340        3.0008105830
 C         -1.7957848979        3.0187981422        2.3900658736
 C          0.8676982201        1.0711863990        1.3026064519
 C          1.0505107488        1.4489857466        2.6303776198
 C          2.0614806033        0.8870283121        3.3769502850
 C          2.9132869312       -0.0632093191        2.8311965728
 Cl         4.0130908585       -0.8955784283        3.8642917466
 C          2.8106580404       -0.3995700711        1.4799803170
 O          3.6702749398       -1.3151352874        0.8479692659
 C          4.9929366406       -1.3133033100        1.3248940915
 C          1.7612675189        0.1708787594        0.7280804504
 C          1.7676473822       -0.1671338692       -0.7180717060
 C          0.8766395203       -1.0646573986       -1.3000482789
 C          1.0663619986       -1.4390277287       -2.6277746830
 C          2.0851049889       -0.8789430282       -3.3647228467
 C          2.9378981107        0.0659053223       -2.8108528910
 Cl         4.0499819262        0.8931964594       -3.8348487355
 C          2.8249762250        0.4027072433       -1.4605948911
 O          3.6794018008        1.3167884859       -0.8199379095
 C          5.0036264471        1.3236400213       -1.2922880420
 P         -0.4818916489       -1.7319156917       -0.3194738171
 C          0.0860739987       -2.2551842315        1.3064071905
 C          1.2273631733       -3.0186172406        1.3940533843
 C          1.6965537437       -3.4165297330        2.6324136599
 C          1.0154725439       -3.0504595727        3.7751747947
 C         -0.1350462596       -2.2941592640        3.6827985867
 C         -0.6024993995       -1.8987393910        2.4437866409
 C         -1.2255973763       -3.1449773856       -1.1582955612
 C         -1.7834432918       -3.0037432813       -2.4091912944
 C         -2.3694006269       -4.0910229843       -3.0300121919
 C         -2.3975171372       -5.3148909046       -2.3932548715
 C         -1.8419745864       -5.4539381482       -1.1380868938
 C         -1.2556360572       -4.3649075774       -0.5210841019
 H         -1.4881227323        1.2975173670       -2.3733706422
 H         -0.6441937087        1.9889326564       -4.5851821471
 H          1.4075102041        3.3327896269       -4.7466985459
 H          2.6122355740        3.9886400092       -2.7065766724
 H          1.7672692391        3.2715364286       -0.4976688373
 H         -0.8343638735        4.4587833725       -0.4890723604
 H         -1.8867161413        6.4094563549        0.5932891117
 H         -2.8808771215        6.1772482995        2.8295883607
 H         -2.8261457471        4.0056133000        3.9796451199
 H         -1.7804706626        2.0595976692        2.8812371998
 H          0.4005705594        2.1840892072        3.0695970775
 H          2.1880581630        1.1548324184        4.4122939680
 H          5.0654754496       -1.9750738397        2.1890800118
 H          5.6491551686       -1.6809227998        0.5345530139
 H          5.2844849552       -0.2978779733        1.5992682465
 H          0.4170852230       -2.1707921555       -3.0735263057
 H          2.2185906670       -1.1451178232       -4.3996390882
 H          5.0755717715        1.9891310808       -2.1536928800
 H          5.6552126059        1.6917836351       -0.4983418470
 H          5.3015033699        0.3108019119       -1.5694523815
 H          1.7684939806       -3.2681091384        0.4947605933
 H          2.6031470494       -3.9942395061        2.7045492012
 H          1.3868488419       -3.3498985771        4.7414847910
 H         -0.6662015650       -2.0086237147        4.5756051551
 H         -1.4998062464       -1.3083057485        2.3627278278
 H         -1.7699830138       -2.0407497092       -2.8930070941
 H         -2.8055304778       -3.9823095749       -4.0091793383
 H         -2.8537974291       -6.1632274770       -2.8765017214
 H         -1.8639827239       -6.4090463840       -0.6397323028
 H         -0.8223906421       -4.4626232269        0.4605972622
 C         -5.7241176466       -0.0140574472        0.0107616264
 C         -4.6234329116        0.8001736809       -0.7998163329
 C         -4.6109585949       -0.8196455969        0.8128697313
 H         -6.3440143832       -0.6521661125       -0.6252600233
 H         -6.3441380299        0.6191711471        0.6515161196
 C         -3.7877852630        1.3467701044        0.3929644122
 C         -3.7836360955       -0.3860512616       -1.3578849425
 H         -4.9920572830        1.5393971689       -1.5318474302
 C         -3.7761360230        0.3731199919        1.3645122245
 C         -3.7803327306       -1.3597602740       -0.3863518703
 H         -4.9681393004       -1.5617281184        1.5476776084
 H         -3.4151845513        2.3676213419        0.4935323589
 H         -3.4046680179       -0.4838472347       -2.3780194237
 H         -3.3904331150        0.4741122624        2.3818106921
 H         -3.4010001036       -2.3777981233       -0.4902825184
  90
       -141.65782590
 Rh        -2.0282583733        0.0392404933        0.2198345173
 P         -0.4851269651        1.8467567953        0.0981559306
 C          0.0245325715        2.0457462371       -1.6137778047
 C         -0.7442873970        1.5193029358       -2.6271731786
 C         -0.3531234018        1.6847813881       -3.9424381224
 C          0.7951681292        2.3929332040       -4.2340352457
 C          1.5498744309        2.9395487689       -3.2161165456
 C          1.1619009742        2.7646366746       -1.9007087540
 C         -1.2201625314        3.4049573049        0.6505762851
 C         -1.1537982605        4.4906297825       -0.1946143717
 C         -1.7272245960        5.6946858656        0.1693093043
 C         -2.3705180298        5.8086973902        1.3838038025
 C         -2.4394893580        4.7223715155        2.2310357389
 C         -1.8638554426        3.5210968337        1.8624240362
 C          0.8274223668        1.2325083172        1.1957756215
 C          0.7897701339        1.6124163328        2.5355567226
 C          1.6382769979        1.0121605723        3.4415869705
 C          2.4386862734       -0.0888534316        3.1084792472
 Cl         3.1488511474       -1.0546465117        4.3456629458
 C          2.5686427599       -0.4197942163        1.7234656563
 O          3.4101422292       -1.4378792023        1.2541641714
 C          4.5701381312       -1.6375753123        2.0221686367
 C          1.8302118841        0.3333001868        0.7832718135
 C          1.9596554808       -0.0575167372       -0.6400540814
 C          1.0979149524       -0.9154329128       -1.2601912373
 C          1.3448180879       -1.3287245840       -2.5550796053
 C          2.4328759932       -0.8563696137       -3.2273412721
 C          3.1662823808        0.1807651325       -2.6554608929
 Cl         4.2726196451        1.0514596507       -3.6538344105
 C          3.0457026100        0.5101462930       -1.3464138775
 O          3.8777455174        1.4270204775       -0.6752580814
 C          5.2296678949        1.3929710801       -1.0608447687
 P         -0.3728096515       -1.5078816643       -0.4157825095
 C          0.1499193344       -2.4085111837        1.0583674227
 C          1.1562805774       -3.3384218407        0.9318013514
 C          1.6133684597       -4.0176758023        2.0462753890
 C          1.0616037123       -3.7579535363        3.2838011942
 C          0.0554225928       -2.8225739666        3.4090289322
 C         -0.3994124974       -2.1467790699        2.2933140852
 C         -1.2093061280       -2.6568950834       -1.5353415345
 C         -1.7299407253       -2.1932106127       -2.7223652052
 C         -2.3503627953       -3.0689800150       -3.5931069631
 C         -2.4460486616       -4.4071817155       -3.2704725337
 C         -1.9219124920       -4.8710191361       -2.0814608073
 C         -1.3005032186       -3.9926512532       -1.2144049264
 H         -1.6555754755        0.9972729996       -2.3870907358
 H         -0.9462227229        1.2666029016       -4.7387073259
 H          1.1048547325        2.5185166702       -5.2585232037
 H          2.4523726365        3.4827055348       -3.4431979544
 H          1.7573723292        3.1610218567       -1.0930563899
 H         -0.6580106228        4.3937671218       -1.1460389382
 H         -1.6737684735        6.5408142143       -0.4957660850
 H         -2.8209719218        6.7452130717        1.6692860119
 H         -2.9464038884        4.8090313832        3.1778993782
 H         -1.9371884661        2.6681434667        2.5141557084
 H          0.1005876931        2.3716694234        2.8589272793
 H          1.5990011870        1.3028676198        4.4776648577
 H          4.3352857579       -2.2838030328        2.8689448756
 H          5.3233284879       -2.1201210200        1.3976744792
 H          4.9494693613       -0.6760928516        2.3731471698
 H          0.6955958337       -2.0528337166       -3.0178093595
 H          2.6349417637       -1.1487282189       -4.2439700251
 H          5.3718651629        2.0294173396       -1.9352247826
 H          5.8347993341        1.7730316817       -0.2362141305
 H          5.5231863298        0.3662159814       -1.2860191019
 H          1.6051622079       -3.5042053145       -0.0349048857
 H          2.4115678380       -4.7349062374        1.9500986515
 H          1.4250851594       -4.2769246418        4.1555478794
 H         -0.3674787640       -2.6111065089        4.3772003672
 H         -1.1707225633       -1.4024280559        2.3888775718
 H         -1.6339238015       -1.1497147042       -2.9723884049
 H         -2.7529588791       -2.7083688368       -4.5251106320
 H         -2.9259980056       -5.0920663479       -3.9501261186
 H         -1.9919102445       -5.9167556897       -1.8313225542
 H         -0.8825202874       -4.3475830867       -0.2873420504
 C         -5.3566354259       -0.7543920578        1.4700925134
 C         -4.8000709808        0.1080280571        0.2549817601
 C         -3.8858869560       -1.1456012638        1.9327667213
 H         -5.9512216341       -1.6149532311        1.1506352071
 H         -5.8982015832       -0.1582676038        2.2098203768
 C         -3.8147058080        1.0320919167        1.0311752231
 C         -3.8927005581       -0.9624771415       -0.4206230662
 H         -5.5500338964        0.6028862749       -0.3861813574
 C         -3.2611602416        0.2765618483        2.0397644961
 C         -3.3408278634       -1.7135940882        0.5907514330
 H         -3.8038263772       -1.7964003664        2.8202936535
 H         -3.6895924436        2.1058843586        0.8750583828
 H         -3.8211154484       -1.1685153119       -1.4911818424
 H         -2.6127272881        0.6315970568        2.8442029779
 H         -2.7600271240       -2.6299495017        0.4704191372
  90
       -141.65731289
 Rh        -2.0859061465       -0.0666829319       -0.0319217331
 P         -0.5020639707        1.6538799332        0.3361956516
 C          0.0882952307        2.2098492945       -1.2716970854
 C         -0.5980950534        1.8981329805       -2.4232874559
 C         -0.1253276101        2.3365744531       -3.6456740155
 C          1.0276867582        3.0922213446       -3.7070809386
 C          1.7071874424        3.4128550956       -2.5498449945
 C          1.2331967978        2.9710188965       -1.3284436406
 C         -1.2334444876        3.0700337979        1.1878681058
 C         -1.1817055654        4.3123171542        0.5968044148
 C         -1.7326054187        5.4071247756        1.2354807656
 C         -2.3346185763        5.2521999999        2.4670373566
 C         -2.3884275196        4.0065085982        3.0580604852
 C         -1.8375994337        2.9136770874        2.4154312048
 C          0.8492014205        0.9956981353        1.3304897472
 C          1.0250684445        1.4466394563        2.6204778280
 C          2.0518693408        1.0014122367        3.3737777320
 C          2.9316064174        0.0257950406        2.9140023079
 Cl         4.0035918296       -0.7542365424        4.0148185250
 C          2.8656173783       -0.3611319449        1.5361756772
 O          3.7344999425       -1.2885703189        0.9488690419
 C          5.0248371271       -1.3206887353        1.5030634193
 C          1.8247111059        0.2122625695        0.7206413031
 C          1.8691474307       -0.2173381325       -0.7095217535
 C          0.9437890194       -1.1045528935       -1.3064221761
 C          1.0786621571       -1.4844734160       -2.6172037034
 C          1.9907326232       -0.8705414155       -3.4073952918
 C          2.8372194823        0.1314569944       -2.9188411585
 Cl         3.8039219482        1.0444767384       -4.0145447231
 C          2.8639883621        0.4068576797       -1.5331154756
 O          3.7568958827        1.3165531844       -0.9484731705
 C          5.0540501180        1.2769494659       -1.4889488564
 P         -0.4188293135       -1.7467045075       -0.3053170145
 C          0.1530505260       -2.2541032713        1.3229771525
 C          1.2832715201       -3.0332547555        1.4129261823
 C          1.7527637045       -3.4242601032        2.6533847138
 C          1.0833975369       -3.0349477155        3.7954387574
 C         -0.0557216967       -2.2618402199        3.7005996055
 C         -0.5240028549       -1.8736847689        2.4595773490
 C         -1.2170250880       -3.1509671452       -1.1108897262
 C         -1.7635231865       -3.0251738792       -2.3687979299
 C         -2.4109663025       -4.0984592048       -2.9514578331
 C         -2.5128711114       -5.2935328906       -2.2695011750
 C         -1.9689780403       -5.4174880885       -1.0076682131
 C         -1.3208149305       -4.3423931704       -0.4289088187
 H         -1.5003005672        1.3126343162       -2.3656632570
 H         -0.6548408565        2.0861959098       -4.5499150702
 H          1.4038799076        3.4243195348       -4.6607920580
 H          2.6174743443        3.9872902122       -2.5982954687
 H          1.7716942891        3.1876269467       -0.4191112571
 H         -0.7081211277        4.4247402026       -0.3642013383
 H         -1.6880154842        6.3797713082        0.7738753812
 H         -2.7611636263        6.1054717088        2.9684183585
 H         -2.8579449755        3.8859306456        4.0202438303
 H         -1.8767598774        1.9366545674        2.8688399507
 H          0.3379925714        2.1688883322        3.0269010236
 H          2.1625033425        1.3382981476        4.3915987295
 H          5.0196545323       -1.9516445663        2.3929406345
 H          5.7095319657       -1.7434694743        0.7662021101
 H          5.3419329146       -0.3076113320        1.7568999753
 H          0.4244159335       -2.2334584663       -3.0283639676
 H          2.0558595433       -1.1189575973       -4.4538673490
 H          5.0966542142        1.9116578233       -2.3748313613
 H          5.7545122571        1.6523910666       -0.7415946760
 H          5.3134098302        0.2487344147       -1.7475382975
 H          1.8129257291       -3.3046470948        0.5131791863
 H          2.6488651835       -4.0178467747        2.7272789703
 H          1.4544944396       -3.3301880955        4.7631365250
 H         -0.5771752066       -1.9576288050        4.5929554480
 H         -1.4116302101       -1.2688179274        2.3763269672
 H         -1.7024165966       -2.0811448116       -2.8849592297
 H         -2.8406483861       -3.9998390358       -3.9345762643
 H         -3.0191424231       -6.1303817313       -2.7220325647
 H         -2.0503879118       -6.3495758599       -0.4732480715
 H         -0.9002283329       -4.4270144241        0.5595453057
 C         -5.7249663197        0.0670559541       -0.2269991336
 C         -4.5481574245        0.8401244331       -0.9673547774
 C         -4.6925047186       -0.7872167756        0.6311711920
 H         -6.3330525957       -0.5414776857       -0.9021183435
 H         -6.3541723313        0.7220851119        0.3822045003
 C         -3.7619783997        1.3461741371        0.2752248339
 C         -3.7250136032       -0.3756784869       -1.4849289433
 H         -4.8439011168        1.5978940710       -1.7134150846
 C         -3.8442078453        0.3679241421        1.2386063745
 C         -3.8154471031       -1.3539017239       -0.5219591089
 H         -5.1209466455       -1.5177699562        1.3388927912
 H         -3.3595263194        2.3521459328        0.4051432331
 H         -3.2958326793       -0.4840573826       -2.4838211017
 H         -3.5128539049        0.4463885002        2.2767735174
 H         -3.4720969756       -2.3860419475       -0.6110740314
  90
       -141.65550908
 Rh        -2.0908360666        0.0276217991       -0.0819283599
 P         -0.4101166932        1.6454032998        0.3857302776
 C          0.1333318143        2.3147628541       -1.1953065724
 C         -0.5835204474        2.0790961704       -2.3466042332
 C         -0.1334593541        2.5808941891       -3.5528368294
 C          1.0294525472        3.3220334618       -3.5985763726
 C          1.7398598516        3.5665162437       -2.4412746769
 C          1.2874837051        3.0623422144       -1.2357832924
 C         -1.2372197894        2.9448562665        1.3231558540
 C         -1.3310142554        4.2111124567        0.7916268046
 C         -1.9913807992        5.2049293912        1.4892678459
 C         -2.5534938501        4.9242242443        2.7178558907
 C         -2.4577416906        3.6541342233        3.2490856190
 C         -1.7992407807        2.6616191497        2.5475836484
 C          1.0013520579        1.0313829812        1.3300882547
 C          1.1775777529        1.4104321507        2.6108895682
 C          2.2777418469        0.9485670466        3.2942332481
 C          3.1401477840       -0.0408388877        2.7560656231
 Cl         4.3580629439       -0.7439423468        3.7497007961
 C          2.9012422821       -0.5124485727        1.4845837001
 O          3.6575272302       -1.5283834631        0.8709940498
 C          5.0353856009       -1.4819604064        1.1483617646
 C          1.8498867423        0.0960336673        0.7421705834
 C          1.7678868317       -0.2531806072       -0.7084362495
 C          0.7928227678       -1.0808963676       -1.2925687030
 C          0.9268282326       -1.4680517307       -2.6024012113
 C          1.9342161914       -0.9808426984       -3.3964982253
 C          2.7735624207        0.0218335761       -2.8869917675
 Cl         3.7627161527        0.9050896039       -3.9875806521
 C          2.7735582671        0.3300720438       -1.5702604708
 O          3.6780690651        1.2279443532       -0.9736785039
 C          4.9527767297        1.2783442109       -1.5652529035
 P         -0.5371429200       -1.7503099509       -0.2671907240
 C          0.0155865673       -2.1367143996        1.4042708655
 C          1.1338139624       -2.9223890602        1.5648344256
 C          1.5925739508       -3.2186656021        2.8352098650
 C          0.9241190006       -2.7291886278        3.9383540238
 C         -0.2047101927       -1.9525551414        3.7747586664
 C         -0.6623344549       -1.6599157757        2.5039470599
 C         -1.2298080988       -3.2524611263       -0.9971801171
 C         -1.8107369311       -3.2374324989       -2.2458596495
 C         -2.3403322865       -4.3983409820       -2.7773092651
 C         -2.2886993346       -5.5728934030       -2.0554747820
 C         -1.7107788869       -5.5878305191       -0.8032290969
 C         -1.1824181443       -4.4245879916       -0.2759317370
 H         -1.4904489203        1.5000439112       -2.3033138142
 H         -0.6878774258        2.3898918665       -4.4567186219
 H          1.3868089785        3.7050537636       -4.5403530731
 H          2.6548651966        4.1341252775       -2.4781479702
 H          1.8503335411        3.2177778930       -0.3288429388
 H         -0.8915270766        4.4174719634       -0.1703730276
 H         -2.0666217801        6.1964258742        1.0742017078
 H         -3.0676243759        5.6984186657        3.2634379149
 H         -2.8969716489        3.4357125036        4.2083187923
 H         -1.7245257520        1.6636908587        2.9490339464
 H          0.5192396295        2.1340567881        3.0609835533
 H          2.4686116799        1.2858617961        4.2987282610
 H          5.2342732239       -2.0140515277        2.0795502561
 H          5.5718588195       -1.9683007617        0.3322881882
 H          5.3586382703       -0.4426167779        1.2295670199
 H          0.2413412902       -2.1910797872       -3.0082109896
 H          2.0176882814       -1.2622309894       -4.4322115544
 H          4.9335624677        1.9756023798       -2.4041763480
 H          5.6685782433        1.6322732314       -0.8216403293
 H          5.2421716593        0.2825387509       -1.9060304799
 H          1.6704473475       -3.2647392351        0.6936901958
 H          2.4839872452       -3.8107424529        2.9609542397
 H          1.2882168336       -2.9487210266        4.9285815541
 H         -0.7266792565       -1.5714101900        4.6367375594
 H         -1.5436325290       -1.0555237175        2.3691279565
 H         -1.8650917616       -2.3146538791       -2.7987746723
 H         -2.7950205332       -4.3855806197       -3.7540260676
 H         -2.7001835859       -6.4788748934       -2.4693649046
 H         -1.6697178964       -6.5039908294       -0.2374545743
 H         -0.7335359105       -4.4289848516        0.7031976202
 C         -5.6946094141        0.2573536092       -0.5741111395
 C         -4.4391729741        0.9707457838       -1.2428035213
 C         -4.7608536600       -0.5927929198        0.3932612464
 H         -6.2644579001       -0.3595811052       -1.2745716640
 H         -6.3510903937        0.9501001442       -0.0401696641
 C         -3.7377501687        1.5003000980        0.0411881940
 C         -3.6157231106       -0.2859953261       -1.6510164180
 H         -4.6521910826        1.7079850787       -2.0359869175
 C         -3.9292699746        0.5603551030        1.0270862827
 C         -3.8128939664       -1.2255723202       -0.6655604483
 H         -5.2659783692       -1.2852898669        1.0887227727
 H         -3.3118710290        2.4967005030        0.1731435424
 H         -3.1037907412       -0.4388414320       -2.6041425827
 H         -3.6820538192        0.6694898327        2.0856719535
 H         -3.4869960339       -2.2670686789       -0.6843662185
  90
       -141.65534644
 Rh        -2.0381193654        0.0195167289       -0.2309151738
 P         -0.4052190768        1.5985798937        0.4407931089
 C          0.1147652173        2.4512232213       -1.0607737963
 C          1.0826594995        3.4238574039       -0.9613311539
 C          1.5126932180        4.0878217497       -2.0958469052
 C          0.9791684373        3.7637588691       -3.3264905863
 C          0.0146539019        2.7825257689       -3.4246548867
 C         -0.4195789175        2.1280935231       -2.2882749375
 C         -1.2588813575        2.7625594914        1.5215837575
 C         -1.6740398700        2.3493451393        2.7669492201
 C         -2.3282630537        3.2347197762        3.6030213631
 C         -2.5633958668        4.5291392550        3.1858526810
 C         -2.1440684866        4.9412936341        1.9374998863
 C         -1.4877047371        4.0546382640        1.1051990120
 C          1.0504425022        1.0183758328        1.3115370911
 C          1.4593551563        1.4794755781        2.5392606713
 C          2.5671963045        0.9839811134        3.2093098150
 C          3.1735252500       -0.1906515264        2.7394629968
 Cl         4.3183988803       -1.0505237393        3.6935957102
 C          2.8913896534       -0.6179575367        1.4063445247
 O          3.6231835139       -1.6634564325        0.8107733957
 C          4.9795955259       -1.3394353111        0.6337029218
 C          1.8410638501        0.0355015219        0.6842478804
 C          1.7924601295       -0.3638210506       -0.7782163642
 C          0.7819406605       -1.1851415113       -1.3047501973
 C          0.7854225354       -1.3780430289       -2.6761775373
 C          1.7966713686       -0.8856888615       -3.4962361100
 C          2.7944541096       -0.0475289664       -2.9908746111
 Cl         4.0654828917        0.4853503465       -4.0249261738
 C          2.6956023039        0.3408505117       -1.6241995233
 O          3.5041331631        1.3143041346       -1.0270713063
 C          4.2358181398        2.1178858989       -1.9159071141
 P         -0.5421947987       -1.8184171132       -0.2353861142
 C         -0.0665483049       -2.0249351411        1.4941399918
 C          1.0298182291       -2.8012523378        1.7930720491
 C          1.4206980079       -2.9673107456        3.1090025629
 C          0.7080545477       -2.3561493358        4.1200005176
 C         -0.4012295099       -1.5922549515        3.8200037306
 C         -0.7938207008       -1.4347223957        2.5045738914
 C         -1.2268676010       -3.3918109041       -0.8053042932
 C         -1.8230039728       -3.5232646270       -2.0394883458
 C         -2.3563550054       -4.7389309565       -2.4256717105
 C         -2.2937299848       -5.8226347947       -1.5742212541
 C         -1.7011909454       -5.6917801322       -0.3361464171
 C         -1.1704131319       -4.4741146563        0.0453991711
 H          1.5090971219        3.6490519314        0.0033536359
 H          2.2675009891        4.8527061185       -2.0193300789
 H          1.3173129427        4.2754182755       -4.2125945627
 H         -0.3992450751        2.5257524620       -4.3857858296
 H         -1.1707175203        1.3604896543       -2.3624200431
 H         -1.4774529926        1.3379422360        3.0836262610
 H         -2.6507980246        2.9156653003        4.5801934677
 H         -3.0719295995        5.2207633585        3.8373000427
 H         -2.3249429097        5.9526767539        1.6128003886
 H         -1.1519715766        4.3674397307        0.1303492374
 H          0.9052215064        2.2898072190        2.9832397143
 H          2.8555957613        1.3742700651        4.1693041397
 H          5.4608917325       -1.2317917383        1.6063827443
 H          5.4599806129       -2.1416600428        0.0718673721
 H          5.0495675869       -0.4046817949        0.0736975576
 H          0.0200125609       -1.9954832661       -3.1103141251
 H          1.8204849400       -1.1371987905       -4.5423670699
 H          5.0889049288        1.5506131190       -2.2929391806
 H          3.5933028680        2.4310562947       -2.7415533965
 H          4.5963146186        2.9971863505       -1.3793452996
 H          1.6053243417       -3.2369496446        0.9910138967
 H          2.2980218305       -3.5488170623        3.3401654523
 H          1.0219912100       -2.4717912799        5.1444200625
 H         -0.9609201608       -1.1208241676        4.6107667775
 H         -1.6703777172       -0.8569070865        2.2656596241
 H         -1.8941996150       -2.6722253056       -2.6938939510
 H         -2.8247295364       -4.8396643548       -3.3907210876
 H         -2.7093018719       -6.7705742153       -1.8745315268
 H         -1.6526117761       -6.5351894990        0.3329024088
 H         -0.7163720966       -4.3659561622        1.0159212960
 C         -5.5242320918        0.5215258372       -1.1425192389
 C         -4.1427276513        1.0228734889       -1.7530519522
 C         -4.7817980938       -0.2764644494        0.0158383392
 H         -6.0862327754       -0.1272684339       -1.8201430148
 H         -6.1525792989        1.3354749206       -0.7701512433
 C         -3.5138476759        1.6512581662       -0.4754885445
 C         -3.4209081851       -0.3469988462       -1.9146365189
 H         -4.2014925322        1.6652004411       -2.6485038652
 C         -3.9009011350        0.8726254352        0.5906981180
 C         -3.8082639409       -1.1297210119       -0.8511937124
 H         -5.4212110236       -0.8212589948        0.7319953547
 H         -2.9882081682        2.6064267613       -0.4203543740
 H         -2.8266296174       -0.6617249756       -2.7756506767
 H         -3.7349946194        1.0963111317        1.6472522878
 H         -3.5777166243       -2.1872048503       -0.7035593102
