  90
       -141.66398629
 Rh        -2.0789865450        0.0002013044       -0.0031346491
 P         -0.4851698463        1.7360406554        0.3119356821
 C          0.0909325791        2.2517951833       -1.3133711404
 C         -0.5912989588        1.8889925488       -2.4525745795
 C         -0.1180600607        2.2793913820       -3.6909919341
 C          1.0317530068        3.0370692737       -3.7809392998
 C          1.7064155920        3.4094810296       -2.6364119109
 C          1.2315064970        3.0165619727       -1.3986370156
 C         -1.2354907458        3.1523528411        1.1394002981
 C         -1.2693023393        4.3670637958        0.4924489970
 C         -1.8617286338        5.4584855449        1.0993547005
 C         -2.4196731802        5.3270949224        2.3542707240
 C         -2.3878481140        4.1084702340        3.0008105830
 C         -1.7957848979        3.0187981422        2.3900658736
 C          0.8676982201        1.0711863990        1.3026064519
 C          1.0505107488        1.4489857466        2.6303776198
 C          2.0614806033        0.8870283121        3.3769502850
 C          2.9132869312       -0.0632093191        2.8311965728
 Cl         4.0130908585       -0.8955784283        3.8642917466
 C          2.8106580404       -0.3995700711        1.4799803170
 O          3.6702749398       -1.3151352874        0.8479692659
 C          4.9929366406       -1.3133033100        1.3248940915
 C          1.7612675189        0.1708787594        0.7280804504
 C          1.7676473822       -0.1671338692       -0.7180717060
 C          0.8766395203       -1.0646573986       -1.3000482789
 C          1.0663619986       -1.4390277287       -2.6277746830
 C          2.0851049889       -0.8789430282       -3.3647228467
 C          2.9378981107        0.0659053223       -2.8108528910
 Cl         4.0499819262        0.8931964594       -3.8348487355
 C          2.8249762250        0.4027072433       -1.4605948911
 O          3.6794018008        1.3167884859       -0.8199379095
 C          5.0036264471        1.3236400213       -1.2922880420
 P         -0.4818916489       -1.7319156917       -0.3194738171
 C          0.0860739987       -2.2551842315        1.3064071905
 C          1.2273631733       -3.0186172406        1.3940533843
 C          1.6965537437       -3.4165297330        2.6324136599
 C          1.0154725439       -3.0504595727        3.7751747947
 C         -0.1350462596       -2.2941592640        3.6827985867
 C         -0.6024993995       -1.8987393910        2.4437866409
 C         -1.2255973763       -3.1449773856       -1.1582955612
 C         -1.7834432918       -3.0037432813       -2.4091912944
 C         -2.3694006269       -4.0910229843       -3.0300121919
 C         -2.3975171372       -5.3148909046       -2.3932548715
 C         -1.8419745864       -5.4539381482       -1.1380868938
 C         -1.2556360572       -4.3649075774       -0.5210841019
 H         -1.4881227323        1.2975173670       -2.3733706422
 H         -0.6441937087        1.9889326564       -4.5851821471
 H          1.4075102041        3.3327896269       -4.7466985459
 H          2.6122355740        3.9886400092       -2.7065766724
 H          1.7672692391        3.2715364286       -0.4976688373
 H         -0.8343638735        4.4587833725       -0.4890723604
 H         -1.8867161413        6.4094563549        0.5932891117
 H         -2.8808771215        6.1772482995        2.8295883607
 H         -2.8261457471        4.0056133000        3.9796451199
 H         -1.7804706626        2.0595976692        2.8812371998
 H          0.4005705594        2.1840892072        3.0695970775
 H          2.1880581630        1.1548324184        4.4122939680
 H          5.0654754496       -1.9750738397        2.1890800118
 H          5.6491551686       -1.6809227998        0.5345530139
 H          5.2844849552       -0.2978779733        1.5992682465
 H          0.4170852230       -2.1707921555       -3.0735263057
 H          2.2185906670       -1.1451178232       -4.3996390882
 H          5.0755717715        1.9891310808       -2.1536928800
 H          5.6552126059        1.6917836351       -0.4983418470
 H          5.3015033699        0.3108019119       -1.5694523815
 H          1.7684939806       -3.2681091384        0.4947605933
 H          2.6031470494       -3.9942395061        2.7045492012
 H          1.3868488419       -3.3498985771        4.7414847910
 H         -0.6662015650       -2.0086237147        4.5756051551
 H         -1.4998062464       -1.3083057485        2.3627278278
 H         -1.7699830138       -2.0407497092       -2.8930070941
 H         -2.8055304778       -3.9823095749       -4.0091793383
 H         -2.8537974291       -6.1632274770       -2.8765017214
 H         -1.8639827239       -6.4090463840       -0.6397323028
 H         -0.8223906421       -4.4626232269        0.4605972622
 C         -5.7241176466       -0.0140574472        0.0107616264
 C         -4.6234329116        0.8001736809       -0.7998163329
 C         -4.6109585949       -0.8196455969        0.8128697313
 H         -6.3440143832       -0.6521661125       -0.6252600233
 H         -6.3441380299        0.6191711471        0.6515161196
 C         -3.7877852630        1.3467701044        0.3929644122
 C         -3.7836360955       -0.3860512616       -1.3578849425
 H         -4.9920572830        1.5393971689       -1.5318474302
 C         -3.7761360230        0.3731199919        1.3645122245
 C         -3.7803327306       -1.3597602740       -0.3863518703
 H         -4.9681393004       -1.5617281184        1.5476776084
 H         -3.4151845513        2.3676213419        0.4935323589
 H         -3.4046680179       -0.4838472347       -2.3780194237
 H         -3.3904331150        0.4741122624        2.3818106921
 H         -3.4010001036       -2.3777981233       -0.4902825184
